<?xml version="1.0" encoding="UTF-8"?>

<!-- generated on 2026-06-28T22:47:17.654619+00:00 by Eclipse SUMO netedit 1.27.0
<neteditConfiguration xmlns:xsi="http://www.w3.org/2001/XMLSchema-instance" xsi:noNamespaceSchemaLocation="http://sumo.dlr.de/xsd/neteditConfiguration.xsd">

    <input>
        <sumocfg-file value="C:\Users\franc\OneDrive\Ambiente de Trabalho\Entrecampos\entrecampos.sumocfg"/>
        <additional-files value="C:\Users\franc\OneDrive\Ambiente de Trabalho\Entrecampos\entrecampos.add.xml"/>
        <route-files value="C:\Users\franc\OneDrive\Ambiente de Trabalho\Entrecampos\entrecampos.rou.xml"/>
        <sumo-net-file value="C:\Users\franc\OneDrive\Ambiente de Trabalho\Entrecampos\entrecampos.net.xml"/>
    </input>

    <output>
        <tls-file value="C:\Users\franc\OneDrive\Ambiente de Trabalho\Entrecampos\trafficlightsconfig.tll.xml"/>
        <output-file value="C:\Users\franc\OneDrive\Ambiente de Trabalho\Entrecampos\entrecampos.net.xml"/>
    </output>

    <processing>
        <geometry.min-radius.fix.railways value="false"/>
        <geometry.avoid-overlap value="false"/>
        <geometry.max-grade.fix value="false"/>
        <offset.disable-normalization value="true"/>
        <lefthand value="0"/>
    </processing>

    <junctions>
        <no-turnarounds value="true"/>
        <junctions.corner-detail value="5"/>
        <junctions.limit-turn-speed value="5.50"/>
        <rectangular-lane-cut value="0"/>
    </junctions>

    <pedestrian>
        <walkingareas value="0"/>
    </pedestrian>

    <netedit>
        <ignore.additionalelements value="0"/>
        <ignore.routeelements value="0"/>
    </netedit>

</neteditConfiguration>
-->

<net version="1.20" junctionCornerDetail="5" limitTurnSpeed="5.50" avoidOverlap="0" xmlns:xsi="http://www.w3.org/2001/XMLSchema-instance" xsi:noNamespaceSchemaLocation="http://sumo.dlr.de/xsd/net_file.xsd">

    <location netOffset="-485851.58,-4286285.89" convBoundary="628.07,0.00,1926.94,3269.50" origBoundary="-9.162838,38.725135,-9.140639,38.759636" projParameter="+proj=utm +zone=29 +ellps=WGS84 +datum=WGS84 +units=m +no_defs"/>

    <type id="highway.cycleway" priority="1" numLanes="1" speed="5.56" allow="bicycle" oneway="0" width="2.00"/>
    <type id="highway.footway" priority="1" numLanes="1" speed="2.78" allow="pedestrian" oneway="1" width="2.00"/>
    <type id="highway.living_street" priority="2" numLanes="1" speed="2.78" disallow="tram rail_urban rail rail_electric rail_fast ship container cable_car subway aircraft wheelchair scooter drone" oneway="0"/>
    <type id="highway.pedestrian" priority="1" numLanes="1" speed="2.78" allow="pedestrian" oneway="1" width="2.00"/>
    <type id="highway.primary" priority="12" numLanes="2" speed="13.89" disallow="tram rail_urban rail rail_electric rail_fast ship container cable_car subway aircraft wheelchair scooter drone" oneway="0"/>
    <type id="highway.primary_link" priority="7" numLanes="1" speed="22.22" disallow="tram rail_urban rail rail_electric rail_fast ship container cable_car subway aircraft wheelchair scooter drone" oneway="0"/>
    <type id="highway.residential" priority="3" numLanes="1" speed="13.89" disallow="tram rail_urban rail rail_electric rail_fast ship container cable_car subway aircraft wheelchair scooter drone" oneway="0"/>
    <type id="highway.service" priority="1" numLanes="1" speed="5.56" allow="pedestrian delivery bicycle" oneway="0"/>
    <type id="highway.steps" priority="1" numLanes="1" speed="1.39" allow="pedestrian" oneway="1" width="2.00"/>

    <edge id=":1106603180_0" function="internal">
        <lane id=":1106603180_0_0" index="0" allow="pedestrian delivery bicycle" speed="8.33" length="4.98" shape="1116.60,2719.63 1118.58,2715.06"/>
    </edge>
    <edge id=":1129611827_0" function="internal">
        <lane id=":1129611827_0_0" index="0" disallow="tram rail_urban rail rail_electric rail_fast ship container cable_car subway aircraft wheelchair scooter drone" speed="20.84" length="5.21" shape="1324.88,2598.27 1319.90,2597.42"/>
        <lane id=":1129611827_0_1" index="1" disallow="tram rail_urban rail rail_electric rail_fast ship container cable_car subway aircraft wheelchair scooter drone" speed="20.84" length="5.21" shape="1325.48,2595.12 1320.39,2594.25"/>
        <lane id=":1129611827_0_2" index="2" disallow="tram rail_urban rail rail_electric rail_fast ship container cable_car subway aircraft wheelchair scooter drone" speed="20.84" length="5.21" shape="1326.07,2591.98 1320.88,2591.09"/>
        <lane id=":1129611827_0_3" index="3" disallow="tram rail_urban rail rail_electric rail_fast ship container cable_car subway aircraft wheelchair scooter drone" speed="20.84" length="5.21" shape="1326.67,2588.84 1321.37,2587.93"/>
    </edge>
    <edge id=":1129611836_0" function="internal">
        <lane id=":1129611836_0_0" index="0" disallow="tram rail_urban rail rail_electric rail_fast ship container cable_car subway aircraft wheelchair scooter drone" speed="20.84" length="4.10" shape="1242.31,2529.04 1242.65,2528.00 1242.84,2527.28 1242.99,2526.55 1243.19,2525.47"/>
        <lane id=":1129611836_0_1" index="1" disallow="tram rail_urban rail rail_electric rail_fast ship container cable_car subway aircraft wheelchair scooter drone" speed="20.84" length="4.10" shape="1245.35,2530.06 1245.72,2528.90 1245.94,2528.09 1246.11,2527.28 1246.33,2526.08"/>
        <lane id=":1129611836_0_2" index="2" disallow="tram rail_urban rail rail_electric rail_fast ship container cable_car subway aircraft wheelchair scooter drone" speed="20.84" length="4.10" shape="1248.38,2531.07 1248.80,2529.79 1249.04,2528.91 1249.22,2528.01 1249.47,2526.69"/>
    </edge>
    <edge id=":1129611864_0" function="internal">
        <lane id=":1129611864_0_0" index="0" disallow="tram rail_urban rail rail_electric rail_fast ship container cable_car subway aircraft wheelchair scooter drone" speed="18.05" length="8.92" shape="1296.57,2302.74 1297.66,2300.52 1298.18,2298.90 1298.48,2297.20 1298.86,2294.73"/>
        <lane id=":1129611864_0_1" index="1" disallow="tram rail_urban rail rail_electric rail_fast ship container cable_car subway aircraft wheelchair scooter drone" speed="18.05" length="8.92" shape="1296.57,2302.74 1298.23,2300.50 1299.81,2299.19 1301.13,2297.79 1302.01,2295.28"/>
    </edge>
    <edge id=":1129611864_2" function="internal">
        <lane id=":1129611864_2_0" index="0" disallow="tram rail_urban rail rail_electric rail_fast ship container cable_car subway aircraft wheelchair scooter drone" speed="13.89" length="8.48" shape="1301.37,2303.34 1302.09,2300.99 1303.20,2299.57 1304.34,2298.16 1305.16,2295.83"/>
        <lane id=":1129611864_2_1" index="1" disallow="tram rail_urban rail rail_electric rail_fast ship container cable_car subway aircraft wheelchair scooter drone" speed="13.89" length="8.48" shape="1304.54,2303.75 1305.26,2301.44 1306.36,2300.05 1307.50,2298.67 1308.32,2296.38"/>
    </edge>
    <edge id=":1129611926_0" function="internal">
        <lane id=":1129611926_0_0" index="0" disallow="pedestrian tram rail_urban rail rail_electric rail_fast ship container cable_car subway aircraft wheelchair scooter drone" speed="13.89" length="0.29" shape="1274.87,2524.07 1274.82,2524.34"/>
        <lane id=":1129611926_0_1" index="1" disallow="pedestrian tram rail_urban rail rail_electric rail_fast ship container cable_car subway aircraft wheelchair scooter drone" speed="13.89" length="0.29" shape="1271.72,2523.50 1271.67,2523.81"/>
    </edge>
    <edge id=":1129611934_0" function="internal">
        <lane id=":1129611934_0_0" index="0" disallow="tram rail_urban rail rail_electric rail_fast ship container cable_car subway aircraft wheelchair scooter drone" speed="13.89" length="0.30" shape="1121.13,2557.84 1120.81,2557.78"/>
        <lane id=":1129611934_0_1" index="1" disallow="tram rail_urban rail rail_electric rail_fast ship container cable_car subway aircraft wheelchair scooter drone" speed="13.89" length="0.30" shape="1121.74,2554.70 1121.43,2554.64"/>
        <lane id=":1129611934_0_2" index="2" disallow="tram rail_urban rail rail_electric rail_fast ship container cable_car subway aircraft wheelchair scooter drone" speed="13.89" length="0.30" shape="1122.34,2551.56 1122.05,2551.50"/>
        <lane id=":1129611934_0_3" index="3" disallow="tram rail_urban rail rail_electric rail_fast ship container cable_car subway aircraft wheelchair scooter drone" speed="13.89" length="0.30" shape="1122.94,2548.41 1122.67,2548.36"/>
    </edge>
    <edge id=":1129611937_0" function="internal">
        <lane id=":1129611937_0_0" index="0" allow="pedestrian bus delivery bicycle" speed="7.00" length="8.87" shape="1313.80,2601.40 1313.12,2599.14 1311.89,2597.48 1310.10,2596.43 1307.77,2595.98"/>
        <lane id=":1129611937_0_1" index="1" allow="pedestrian bus delivery bicycle" speed="7.79" length="11.22" shape="1313.80,2601.40 1312.94,2597.73 1311.68,2595.07 1310.01,2593.42 1307.95,2592.78"/>
        <lane id=":1129611937_0_2" index="2" allow="pedestrian bus delivery bicycle" speed="8.58" length="13.77" shape="1313.80,2601.40 1312.76,2596.32 1311.47,2592.65 1309.93,2590.41 1308.14,2589.59"/>
        <lane id=":1129611937_0_3" index="3" allow="pedestrian bus delivery bicycle" speed="9.33" length="16.46" shape="1313.80,2601.40 1312.58,2594.90 1311.26,2590.23 1309.84,2587.40 1308.32,2586.39"/>
    </edge>
    <edge id=":1129611937_4" function="internal">
        <lane id=":1129611937_4_0" index="0" disallow="tram rail_urban rail rail_electric rail_fast ship container cable_car subway aircraft wheelchair scooter drone" speed="20.84" length="10.17" shape="1317.57,2597.05 1314.68,2596.61 1312.69,2596.34 1310.69,2596.16 1307.77,2595.98"/>
        <lane id=":1129611937_4_1" index="1" disallow="tram rail_urban rail rail_electric rail_fast ship container cable_car subway aircraft wheelchair scooter drone" speed="20.84" length="10.17" shape="1317.96,2593.88 1315.00,2593.42 1312.97,2593.15 1310.94,2592.97 1307.95,2592.78"/>
        <lane id=":1129611937_4_2" index="2" disallow="tram rail_urban rail rail_electric rail_fast ship container cable_car subway aircraft wheelchair scooter drone" speed="20.84" length="10.17" shape="1318.34,2590.70 1315.33,2590.23 1313.26,2589.96 1311.18,2589.77 1308.14,2589.59"/>
        <lane id=":1129611937_4_3" index="3" disallow="tram rail_urban rail rail_electric rail_fast ship container cable_car subway aircraft wheelchair scooter drone" speed="20.84" length="10.17" shape="1318.72,2587.52 1315.65,2587.04 1313.54,2586.77 1311.42,2586.58 1308.32,2586.39"/>
    </edge>
    <edge id=":1129611954_0" function="internal">
        <lane id=":1129611954_0_0" index="0" disallow="pedestrian tram rail_urban rail rail_electric rail_fast ship container cable_car subway aircraft wheelchair scooter drone" speed="13.89" length="0.27" shape="1263.01,2522.65 1263.05,2522.42"/>
        <lane id=":1129611954_0_1" index="1" disallow="pedestrian tram rail_urban rail rail_electric rail_fast ship container cable_car subway aircraft wheelchair scooter drone" speed="13.89" length="0.27" shape="1266.14,2523.32 1266.20,2523.01"/>
    </edge>
    <edge id=":1129611960_0" function="internal">
        <lane id=":1129611960_0_0" index="0" disallow="tram rail_urban rail rail_electric rail_fast ship container cable_car subway aircraft wheelchair scooter drone" speed="13.89" length="6.09" shape="1455.18,2599.82 1456.90,2599.63 1458.01,2598.72 1459.11,2597.80 1460.84,2597.60"/>
        <lane id=":1129611960_0_1" index="1" disallow="tram rail_urban rail rail_electric rail_fast ship container cable_car subway aircraft wheelchair scooter drone" speed="13.89" length="6.09" shape="1454.58,2602.96 1456.31,2602.78 1457.43,2601.87 1458.54,2600.95 1460.27,2600.75"/>
        <lane id=":1129611960_0_2" index="2" disallow="tram rail_urban rail rail_electric rail_fast ship container cable_car subway aircraft wheelchair scooter drone" speed="13.89" length="6.09" shape="1453.98,2606.10 1455.72,2605.92 1456.84,2605.01 1457.97,2604.10 1459.71,2603.90"/>
        <lane id=":1129611960_0_3" index="3" disallow="tram rail_urban rail rail_electric rail_fast ship container cable_car subway aircraft wheelchair scooter drone" speed="13.89" length="6.09" shape="1453.98,2606.10 1459.15,2607.05"/>
    </edge>
    <edge id=":1129611989_0" function="internal">
        <lane id=":1129611989_0_0" index="0" disallow="tram rail_urban rail rail_electric rail_fast ship container cable_car subway aircraft wheelchair scooter drone" speed="13.89" length="8.11" shape="1288.47,2499.99 1288.27,2502.31 1288.53,2503.92 1288.84,2505.54 1288.76,2507.88"/>
        <lane id=":1129611989_0_1" index="1" disallow="tram rail_urban rail rail_electric rail_fast ship container cable_car subway aircraft wheelchair scooter drone" speed="13.89" length="8.11" shape="1285.33,2499.37 1285.12,2501.74 1285.38,2503.39 1285.68,2505.05 1285.59,2507.43"/>
        <lane id=":1129611989_0_2" index="2" disallow="tram rail_urban rail rail_electric rail_fast ship container cable_car subway aircraft wheelchair scooter drone" speed="13.89" length="8.11" shape="1282.19,2498.76 1281.97,2501.17 1282.22,2502.86 1282.52,2504.55 1282.42,2506.98"/>
    </edge>
    <edge id=":1130878237_0" function="internal">
        <lane id=":1130878237_0_0" index="0" allow="pedestrian delivery bicycle" speed="3.65" length="4.67" shape="1454.77,2588.01 1453.77,2589.05 1452.91,2589.29 1452.19,2588.75 1451.63,2587.43"/>
    </edge>
    <edge id=":1130878285_0" function="internal">
        <lane id=":1130878285_0_0" index="0" allow="pedestrian delivery bicycle" speed="4.75" length="5.49" shape="1465.14,2554.54 1463.68,2553.90 1462.53,2553.97 1461.69,2554.76 1461.15,2556.26"/>
    </edge>
    <edge id=":1130878285_1" function="internal">
        <lane id=":1130878285_1_0" index="0" disallow="tram rail_urban rail rail_electric rail_fast ship container cable_car subway aircraft wheelchair scooter drone" speed="13.89" length="10.05" shape="1465.14,2554.54 1462.60,2552.98 1460.81,2551.99 1458.90,2551.25 1456.05,2550.39"/>
    </edge>
    <edge id=":1130878285_2" function="internal">
        <lane id=":1130878285_2_0" index="0" allow="pedestrian delivery bicycle" speed="5.65" length="6.19" shape="1458.02,2555.61 1458.24,2553.63 1457.98,2552.11 1457.25,2551.03 1456.05,2550.39"/>
    </edge>
    <edge id=":1130878370_0" function="internal">
        <lane id=":1130878370_0_0" index="0" disallow="tram rail_urban rail rail_electric rail_fast ship container cable_car subway aircraft wheelchair scooter drone" speed="8.29" length="8.75" shape="1582.46,2594.14 1582.30,2591.87 1581.62,2589.87 1580.43,2588.13 1578.72,2586.66"/>
    </edge>
    <edge id=":1130878370_1" function="internal">
        <lane id=":1130878370_1_0" index="0" disallow="tram rail_urban rail rail_electric rail_fast ship container cable_car subway aircraft wheelchair scooter drone" speed="6.81" length="7.31" shape="1582.46,2594.14 1582.66,2591.27 1583.00,2589.16 1583.47,2587.80 1584.09,2587.20"/>
    </edge>
    <edge id=":1130878370_2" function="internal">
        <lane id=":1130878370_2_0" index="0" disallow="tram rail_urban rail rail_electric rail_fast ship container cable_car subway aircraft wheelchair scooter drone" speed="8.16" length="0.52" shape="1585.07,2590.25 1584.57,2590.11"/>
    </edge>
    <edge id=":1130878370_3" function="internal">
        <lane id=":1130878370_3_0" index="0" disallow="tram rail_urban rail rail_electric rail_fast ship container cable_car subway aircraft wheelchair scooter drone" speed="8.16" length="6.82" shape="1584.57,2590.11 1583.79,2589.89 1581.85,2588.78 1579.93,2587.50 1578.72,2586.66"/>
    </edge>
    <edge id=":11522240916_0" function="internal">
        <lane id=":11522240916_0_0" index="0" disallow="tram rail_urban rail rail_electric rail_fast ship container cable_car subway aircraft wheelchair scooter drone" speed="20.84" length="0.30" shape="875.04,2490.25 875.33,2490.31"/>
        <lane id=":11522240916_0_1" index="1" disallow="tram rail_urban rail rail_electric rail_fast ship container cable_car subway aircraft wheelchair scooter drone" speed="20.84" length="0.30" shape="874.42,2493.39 874.72,2493.45"/>
        <lane id=":11522240916_0_2" index="2" disallow="tram rail_urban rail rail_electric rail_fast ship container cable_car subway aircraft wheelchair scooter drone" speed="20.84" length="0.30" shape="873.81,2496.53 874.10,2496.59"/>
    </edge>
    <edge id=":11888786957_0" function="internal">
        <lane id=":11888786957_0_0" index="0" allow="pedestrian delivery bicycle" speed="5.56" length="5.51" shape="1654.15,2394.41 1648.84,2392.93"/>
    </edge>
    <edge id=":11888786957_1" function="internal">
        <lane id=":11888786957_1_0" index="0" allow="pedestrian delivery bicycle" speed="3.65" length="1.44" shape="1654.15,2394.41 1653.21,2393.32"/>
    </edge>
    <edge id=":11888786957_4" function="internal">
        <lane id=":11888786957_4_0" index="0" allow="pedestrian delivery bicycle" speed="3.65" length="3.23" shape="1653.21,2393.32 1653.04,2392.44 1653.64,2391.78 1655.01,2391.33"/>
    </edge>
    <edge id=":11888786957_2" function="internal">
        <lane id=":11888786957_2_0" index="0" allow="pedestrian delivery bicycle" speed="5.56" length="5.50" shape="1649.70,2389.85 1655.01,2391.33"/>
    </edge>
    <edge id=":11888786957_3" function="internal">
        <lane id=":11888786957_3_0" index="0" allow="pedestrian delivery bicycle" speed="3.65" length="1.44" shape="1649.70,2389.85 1650.64,2390.94"/>
    </edge>
    <edge id=":11888786957_5" function="internal">
        <lane id=":11888786957_5_0" index="0" allow="pedestrian delivery bicycle" speed="3.65" length="3.23" shape="1650.64,2390.94 1650.81,2391.82 1650.21,2392.48 1648.84,2392.93"/>
    </edge>
    <edge id=":11888804212_0" function="internal">
        <lane id=":11888804212_0_0" index="0" allow="pedestrian delivery bicycle" speed="3.65" length="4.67" shape="1656.02,2391.61 1656.96,2392.70 1657.13,2393.58 1656.53,2394.24 1655.16,2394.69"/>
    </edge>
    <edge id=":11888804231_0" function="internal">
        <lane id=":11888804231_0_0" index="0" allow="pedestrian delivery bicycle" speed="5.05" length="5.01" shape="1647.10,2392.45 1645.74,2392.27 1644.65,2392.56 1643.82,2393.34 1643.27,2394.59"/>
    </edge>
    <edge id=":11888804231_1" function="internal">
        <lane id=":11888804231_1_0" index="0" allow="pedestrian delivery bicycle" speed="6.86" length="10.17" shape="1647.10,2392.45 1644.55,2391.32 1642.97,2389.66 1642.37,2387.44 1642.73,2384.68"/>
    </edge>
    <edge id=":11888804231_2" function="internal">
        <lane id=":11888804231_2_0" index="0" allow="pedestrian delivery bicycle" speed="3.65" length="4.67" shape="1647.10,2392.45 1646.16,2391.35 1645.99,2390.47 1646.59,2389.81 1647.96,2389.36"/>
    </edge>
    <edge id=":11888804231_3" function="internal">
        <lane id=":11888804231_3_0" index="0" allow="pedestrian delivery bicycle" speed="5.04" length="5.00" shape="1645.81,2385.54 1645.63,2386.90 1645.93,2387.99 1646.71,2388.81 1647.96,2389.36"/>
    </edge>
    <edge id=":11888804231_4" function="internal">
        <lane id=":11888804231_4_0" index="0" disallow="tram rail_urban rail rail_electric rail_fast ship container cable_car subway aircraft wheelchair scooter drone" speed="8.33" length="9.40" shape="1645.81,2385.54 1643.27,2394.59"/>
    </edge>
    <edge id=":11888804231_5" function="internal">
        <lane id=":11888804231_5_0" index="0" disallow="tram rail_urban rail rail_electric rail_fast ship container cable_car subway aircraft wheelchair scooter drone" speed="8.33" length="9.40" shape="1640.19,2393.73 1642.73,2384.68"/>
    </edge>
    <edge id=":11888804231_6" function="internal">
        <lane id=":11888804231_6_0" index="0" allow="pedestrian delivery bicycle" speed="6.87" length="3.26" shape="1640.19,2393.73 1641.31,2391.18 1641.66,2390.85"/>
    </edge>
    <edge id=":11888804231_7" function="internal">
        <lane id=":11888804231_7_0" index="0" allow="pedestrian delivery bicycle" speed="6.87" length="6.90" shape="1641.66,2390.85 1642.98,2389.61 1645.20,2389.00 1647.96,2389.36"/>
    </edge>
    <edge id=":11888804280_0" function="internal">
        <lane id=":11888804280_0_0" index="0" allow="pedestrian delivery bicycle" speed="5.56" length="5.76" shape="1625.43,2420.72 1619.88,2419.17"/>
    </edge>
    <edge id=":11888804280_1" function="internal">
        <lane id=":11888804280_1_0" index="0" allow="pedestrian delivery bicycle" speed="3.65" length="1.44" shape="1625.43,2420.72 1624.50,2419.62"/>
    </edge>
    <edge id=":11888804280_4" function="internal">
        <lane id=":11888804280_4_0" index="0" allow="pedestrian delivery bicycle" speed="3.65" length="3.23" shape="1624.50,2419.62 1624.33,2418.74 1624.94,2418.08 1626.31,2417.64"/>
    </edge>
    <edge id=":11888804280_2" function="internal">
        <lane id=":11888804280_2_0" index="0" allow="pedestrian delivery bicycle" speed="5.56" length="5.78" shape="1620.74,2416.08 1626.31,2417.64"/>
    </edge>
    <edge id=":11888804280_3" function="internal">
        <lane id=":11888804280_3_0" index="0" allow="pedestrian delivery bicycle" speed="3.65" length="1.44" shape="1620.74,2416.08 1621.69,2417.18"/>
    </edge>
    <edge id=":11888804280_5" function="internal">
        <lane id=":11888804280_5_0" index="0" allow="pedestrian delivery bicycle" speed="3.65" length="3.23" shape="1621.69,2417.18 1621.86,2418.06 1621.26,2418.72 1619.88,2419.17"/>
    </edge>
    <edge id=":11888804348_0" function="internal">
        <lane id=":11888804348_0_0" index="0" allow="pedestrian delivery bicycle" speed="5.29" length="5.32" shape="1636.72,2423.97 1636.10,2422.78 1635.17,2422.05 1633.95,2421.79 1632.42,2421.98"/>
    </edge>
    <edge id=":11888804348_1" function="internal">
        <lane id=":11888804348_1_0" index="0" disallow="tram rail_urban rail rail_electric rail_fast ship container cable_car subway aircraft wheelchair scooter drone" speed="8.33" length="9.62" shape="1636.72,2423.97 1635.54,2421.33 1634.45,2419.51 1633.87,2417.68 1634.21,2415.01"/>
    </edge>
    <edge id=":11888804348_2" function="internal">
        <lane id=":11888804348_2_0" index="0" disallow="tram rail_urban rail rail_electric rail_fast ship container cable_car subway aircraft wheelchair scooter drone" speed="8.33" length="9.48" shape="1637.83,2413.97 1637.40,2416.63 1637.78,2418.49 1638.67,2420.33 1639.76,2422.96"/>
    </edge>
    <edge id=":11888804348_3" function="internal">
        <lane id=":11888804348_3_0" index="0" allow="pedestrian delivery bicycle" speed="6.95" length="4.16" shape="1637.83,2413.97 1636.74,2417.15 1636.37,2417.85"/>
    </edge>
    <edge id=":11888804348_7" function="internal">
        <lane id=":11888804348_7_0" index="0" allow="pedestrian delivery bicycle" speed="6.95" length="5.89" shape="1636.37,2417.85 1635.47,2419.55 1634.03,2421.16 1632.42,2421.98"/>
    </edge>
    <edge id=":11888804348_4" function="internal">
        <lane id=":11888804348_4_0" index="0" allow="pedestrian delivery bicycle" speed="6.18" length="4.83" shape="1631.63,2418.88 1632.39,2418.49 1633.08,2417.71 1633.68,2416.55 1634.21,2415.01"/>
    </edge>
    <edge id=":11888804348_5" function="internal">
        <lane id=":11888804348_5_0" index="0" allow="pedestrian delivery bicycle" speed="6.95" length="10.21" shape="1631.63,2418.88 1634.48,2418.54 1636.79,2419.11 1638.55,2420.58 1639.76,2422.96"/>
    </edge>
    <edge id=":11888804348_6" function="internal">
        <lane id=":11888804348_6_0" index="0" allow="pedestrian delivery bicycle" speed="3.65" length="4.67" shape="1631.63,2418.88 1632.99,2419.36 1633.57,2420.04 1633.38,2420.91 1632.42,2421.98"/>
    </edge>
    <edge id=":11888804350_0" function="internal">
        <lane id=":11888804350_0_0" index="0" allow="pedestrian delivery bicycle" speed="3.65" length="4.67" shape="1610.54,2416.57 1609.60,2415.48 1609.43,2414.60 1610.03,2413.94 1611.40,2413.49"/>
    </edge>
    <edge id=":12714969059_0" function="internal">
        <lane id=":12714969059_0_0" index="0" disallow="tram rail_urban rail rail_electric rail_fast ship container cable_car subway aircraft wheelchair scooter drone" speed="13.89" length="5.05" shape="1525.10,2571.35 1520.22,2570.06"/>
    </edge>
    <edge id=":12714969107_0" function="internal">
        <lane id=":12714969107_0_0" index="0" allow="pedestrian delivery bicycle" speed="5.56" length="5.00" shape="1664.02,2725.56 1662.07,2730.16"/>
    </edge>
    <edge id=":12714969107_1" function="internal">
        <lane id=":12714969107_1_0" index="0" allow="pedestrian delivery bicycle" speed="3.65" length="1.44" shape="1664.02,2725.56 1662.82,2726.35"/>
    </edge>
    <edge id=":12714969107_4" function="internal">
        <lane id=":12714969107_4_0" index="0" allow="pedestrian delivery bicycle" speed="3.65" length="3.23" shape="1662.82,2726.35 1661.93,2726.41 1661.35,2725.72 1661.08,2724.31"/>
    </edge>
    <edge id=":12714969107_2" function="internal">
        <lane id=":12714969107_2_0" index="0" allow="pedestrian delivery bicycle" speed="5.56" length="5.00" shape="1659.12,2728.91 1661.08,2724.31"/>
    </edge>
    <edge id=":12714969107_3" function="internal">
        <lane id=":12714969107_3_0" index="0" allow="pedestrian delivery bicycle" speed="3.65" length="1.44" shape="1659.12,2728.91 1660.33,2728.12"/>
    </edge>
    <edge id=":12714969107_5" function="internal">
        <lane id=":12714969107_5_0" index="0" allow="pedestrian delivery bicycle" speed="3.65" length="3.23" shape="1660.33,2728.12 1661.22,2728.06 1661.80,2728.74 1662.07,2730.16"/>
    </edge>
    <edge id=":1291045010_0" function="internal">
        <lane id=":1291045010_0_0" index="0" disallow="tram rail_urban rail rail_electric rail_fast ship container cable_car subway aircraft wheelchair scooter drone" speed="3.65" length="4.67" shape="1423.70,2764.55 1424.91,2763.77 1425.81,2763.72 1426.38,2764.41 1426.63,2765.83"/>
    </edge>
    <edge id=":1291045011_0" function="internal">
        <lane id=":1291045011_0_0" index="0" disallow="tram rail_urban rail rail_electric rail_fast ship container cable_car subway aircraft wheelchair scooter drone" speed="8.33" length="9.40" shape="1404.02,2825.15 1395.35,2821.51"/>
    </edge>
    <edge id=":1291045011_1" function="internal">
        <lane id=":1291045011_1_0" index="0" disallow="tram rail_urban rail rail_electric rail_fast ship container cable_car subway aircraft wheelchair scooter drone" speed="6.04" length="7.86" shape="1404.02,2825.15 1401.54,2823.89 1399.97,2822.56 1399.30,2821.17 1399.54,2819.71"/>
    </edge>
    <edge id=":1291045011_2" function="internal">
        <lane id=":1291045011_2_0" index="0" disallow="tram rail_urban rail rail_electric rail_fast ship container cable_car subway aircraft wheelchair scooter drone" speed="6.18" length="7.82" shape="1402.44,2821.06 1401.50,2822.17 1400.00,2822.61 1397.95,2822.39 1395.35,2821.51"/>
    </edge>
    <edge id=":1291045011_3" function="internal">
        <lane id=":1291045011_3_0" index="0" disallow="tram rail_urban rail rail_electric rail_fast ship container cable_car subway aircraft wheelchair scooter drone" speed="3.65" length="4.67" shape="1402.44,2821.06 1401.21,2821.81 1400.31,2821.84 1399.76,2821.14 1399.54,2819.71"/>
    </edge>
    <edge id=":1291048991_0" function="internal">
        <lane id=":1291048991_0_0" index="0" disallow="tram rail_urban rail rail_electric rail_fast ship container cable_car subway aircraft wheelchair scooter drone" speed="6.41" length="9.04" shape="1503.91,2860.85 1503.18,2863.23 1503.40,2865.24 1504.58,2866.89 1506.72,2868.17"/>
    </edge>
    <edge id=":1291048991_1" function="internal">
        <lane id=":1291048991_1_0" index="0" disallow="tram rail_urban rail rail_electric rail_fast ship container cable_car subway aircraft wheelchair scooter drone" speed="3.65" length="4.67" shape="1503.91,2860.85 1502.68,2861.59 1501.78,2861.61 1501.23,2860.91 1501.02,2859.48"/>
    </edge>
    <edge id=":1291048991_2" function="internal">
        <lane id=":1291048991_2_0" index="0" disallow="tram rail_urban rail rail_electric rail_fast ship container cable_car subway aircraft wheelchair scooter drone" speed="6.69" length="9.26" shape="1493.43,2862.61 1495.82,2863.21 1497.88,2862.89 1499.61,2861.65 1501.02,2859.48"/>
    </edge>
    <edge id=":1291048991_3" function="internal">
        <lane id=":1291048991_3_0" index="0" disallow="tram rail_urban rail rail_electric rail_fast ship container cable_car subway aircraft wheelchair scooter drone" speed="8.33" length="14.41" shape="1493.43,2862.61 1506.72,2868.17"/>
    </edge>
    <edge id=":1291048994_0" function="internal">
        <lane id=":1291048994_0_0" index="0" disallow="tram rail_urban rail rail_electric rail_fast ship container cable_car subway aircraft wheelchair scooter drone" speed="3.65" length="4.67" shape="1531.12,2785.95 1532.31,2785.14 1533.20,2785.07 1533.79,2785.74 1534.08,2787.15"/>
    </edge>
    <edge id=":1291051966_0" function="internal">
        <lane id=":1291051966_0_0" index="0" disallow="tram rail_urban rail rail_electric rail_fast ship container cable_car subway aircraft wheelchair scooter drone" speed="8.33" length="5.00" shape="1370.91,2715.95 1372.85,2711.33"/>
    </edge>
    <edge id=":13074153843_0" function="internal">
        <lane id=":13074153843_0_0" index="0" disallow="tram rail_urban rail rail_electric rail_fast ship container cable_car subway aircraft wheelchair scooter drone" speed="3.65" length="4.67" shape="1064.68,2277.98 1063.65,2276.98 1063.40,2276.12 1063.93,2275.41 1065.26,2274.84"/>
    </edge>